/*--------------------------------*- C++ -*----------------------------------*\
| =========                 |                                                 |
| \\      /  F ield         | OpenFOAM: The Open Source CFD Toolbox           |
|  \\    /   O peration     | Version:  12                                    |
|   \\  /    A nd           | Website:  www.openfoam.org                      |
|    \\/     M anipulation  |                                                 |
\*---------------------------------------------------------------------------*/
FoamFile
{
    version     2.0;
    format      ascii;
    class       dictionary;
    object      blockMeshDict;
}
// * * * * * * * * * * * * * * * * * * * * * * * * * * * * * * * * * * * * * //

scale 1;

// A very simple 2D channel with just one block
vertices
(
    (0    0    0)    // 0
    (20   0    0)    // 1
    (20   2    0)    // 2
    (0    2    0)    // 3
    (0    0    0.1)  // 4
    (20   0    0.1)  // 5
    (20   2    0.1)  // 6
    (0    2    0.1)  // 7
);

blocks
(
    hex (0 1 2 3 4 5 6 7) (200 40 1) simpleGrading (1 1 1)
);

edges
(
);

boundary
(
    inlet
    {
        type patch;
        faces
        (
            (0 4 7 3)
        );
    }
    
    outlet
    {
        type patch;
        faces
        (
            (1 5 6 2)
        );
    }
    
    atmosphere
    {
        type patch;
        faces
        (
            (3 7 6 2)
        );
    }
    
    ground
    {
        type wall;
        faces
        (
            (0 1 5 4)
        );
    }
    
    frontAndBack
    {
        type empty;
        faces
        (
            (0 3 2 1)
            (4 7 6 5)
        );
    }
);

// ************************************************************************* //