/*--------------------------------*- C++ -*----------------------------------*\
| =========                 |                                                 |
| \\      /  F ield         | OpenFOAM: The Open Source CFD Toolbox           |
|  \\    /   O peration     | Version:  12                                    |
|   \\  /    A nd           | Website:  www.openfoam.org                      |
|    \\/     M anipulation  |                                                 |
\*---------------------------------------------------------------------------*/
FoamFile
{
    version     2.0;
    format      ascii;
    class       dictionary;
    location    "system";
    object      controlDict;
}
// * * * * * * * * * * * * * * * * * * * * * * * * * * * * * * * * * * * * * //

application     interFoam;

startFrom       startTime;

startTime       0;

stopAt          endTime;

endTime         100;

deltaT          0.01;

writeControl    adjustableRunTime;

writeInterval   1;

purgeWrite      0;

writeFormat     ascii;

writePrecision  6;

writeCompression off;

timeFormat      general;

timePrecision   6;

runTimeModifiable yes;

adjustTimeStep  yes;

maxCo           0.5;
maxAlphaCo      0.5;

maxDeltaT       1;

// For tracking flow rates
functions
{
    // Using standard patchFlowRate function
    inletFlow
    {
        type            patchFlowRate;
        libs            (fieldFunctionObjects);
        writeControl    timeStep;
        writeInterval   1;
        log             true;
        patches         (inlet);
    }
    
    outletFlow
    {
        type            patchFlowRate;
        libs            (fieldFunctionObjects);
        writeControl    timeStep;
        writeInterval   1;
        log             true;
        patches         (outlet);
    }
    
    // Additional monitoring functions 
    inletFlowRate
    {
        type            surfaceFieldValue;
        libs            (fieldFunctionObjects);
        writeControl    timeStep;
        writeInterval   1;
        log             true;
        writeFields     false;
        regionType      patch;
        name            inlet;
        operation       sum;
        fields
        (
            phi
        );
    }
    
    outletFlowRate
    {
        type            surfaceFieldValue;
        libs            (fieldFunctionObjects);
        writeControl    timeStep;
        writeInterval   1;
        log             true;
        writeFields     false;
        regionType      patch;
        name            outlet;
        operation       sum;
        fields
        (
            phi
        );
    }
}

// ************************************************************************* //
